Git is a distributed version control system.
Git is free software distributed under the GPL.
new line.
tow new line.
Git changes of file
Creating a new branch is quick AND simple.